models/IEEE_37_Bus-G/Load.DSS
New "Load.s701a" bus1=701.1.2 phases=1 conn=Delta model=1 kV=4.8 kW=140 kvar=70
New "Load.s701b" bus1=701.2.3 phases=1 conn=Delta model=1 kV=4.8 kW=140 kvar=70
New "Load.s701c" bus1=701.3.1 phases=1 conn=Delta model=1 kV=4.8 kW=350 kvar=175
New "Load.s712c" bus1=712.3.1 phases=1 conn=Delta model=1 kV=4.8 kW=85 kvar=40
New "Load.s713c" bus1=713.3.1 phases=1 conn=Delta model=1 kV=4.8 kW=85 kvar=40
New "Load.s714a" bus1=714.1.2 phases=1 conn=Delta model=4 kV=4.8 kW=17 kvar=8
New "Load.s714b" bus1=714.2.3 phases=1 conn=Delta model=4 kV=4.8 kW=21 kvar=10
New "Load.s718a" bus1=718.1.2 phases=1 conn=Delta model=2 kV=4.8 kW=85 kvar=40
New "Load.s720c" bus1=720.3.1 phases=1 conn=Delta model=1 kV=4.8 kW=85 kvar=40
New "Load.s722b" bus1=722.2.3 phases=1 conn=Delta model=4 kV=4.8 kW=140 kvar=70
New "Load.s722c" bus1=722.3.1 phases=1 conn=Delta model=4 kV=4.8 kW=21 kvar=10
New "Load.s724b" bus1=724.2.3 phases=1 conn=Delta model=2 kV=4.8 kW=42 kvar=21
New "Load.s725b" bus1=725.2.3 phases=1 conn=Delta model=1 kV=4.8 kW=42 kvar=21
New "Load.s727c" bus1=727.3.1 phases=1 conn=Delta model=1 kV=4.8 kW=42 kvar=21
New "Load.s728" bus1=728 phases=3 conn=Delta model=1 kV=4.8 kW=126 kvar=63
New "Load.s729a" bus1=729.1.2 phases=1 conn=Delta model=4 kV=4.8 kW=42 kvar=21
New "Load.s730c" bus1=730.3.1 phases=1 conn=Delta model=2 kV=4.8 kW=85 kvar=40
New "Load.s731b" bus1=731.2.3 phases=1 conn=Delta model=2 kV=4.8 kW=85 kvar=40
New "Load.s732c" bus1=732.3.1 phases=1 conn=Delta model=1 kV=4.8 kW=42 kvar=21
New "Load.s733a" bus1=733.1.2 phases=1 conn=Delta model=4 kV=4.8 kW=85 kvar=40
New "Load.s734c" bus1=734.3.1 phases=1 conn=Delta model=1 kV=4.8 kW=42 kvar=21
New "Load.s735c" bus1=735.3.1 phases=1 conn=Delta model=1 kV=4.8 kW=85 kvar=40
New "Load.s736b" bus1=736.2.3 phases=1 conn=Delta model=2 kV=4.8 kW=42 kvar=21
New "Load.s737a" bus1=737.1.2 phases=1 conn=Delta model=4 kV=4.8 kW=140 kvar=70
New "Load.s738a" bus1=738.1.2 phases=1 conn=Delta model=1 kV=4.8 kW=126 kvar=62
New "Load.s740c" bus1=740.3.1 phases=1 conn=Delta model=1 kV=4.8 kW=85 kvar=40
New "Load.s741c" bus1=741.3.1 phases=1 conn=Delta model=4 kV=4.8 kW=42 kvar=21
New "Load.s742a" bus1=742.1.2 phases=1 conn=Delta model=2 kV=4.8 kW=8 kvar=4
New "Load.s742b" bus1=742.2.3 phases=1 conn=Delta model=2 kV=4.8 kW=85 kvar=40
New "Load.s744a" bus1=744.1.2 phases=1 conn=Delta model=1 kV=4.8 kW=42 kvar=21
